IEEE30_SE_ANAREDE.PWF
TITU
IEEE 30 Bus Test Case - Substation Level                                        
DBAR
(Num)OETGb(   nome   )Gl( V)( A)( Pg)( Qg)( Qn)( Qm)(Bc  )( Pl)( Ql)( Sh)Are(Vf)M(1)(2)(3)(4)(5)(6)(7)(8)(9)(10
    1 L2 AGlen-Lyn-132  1060  0.260.9-14.4-999999999         0.   6.       11000                                   
    2 L1 AClaytor--132  1043-5.3  40. 42.9   0.   0.       21.7 12.7       11000                                   
    3 L  AKumis----132  1027-7.6                            2.4  1.2       11000                                   
    4 L  AHancock -132  1019-9.4                            7.6  1.6       11000                                   
    5 L1 AFieldale-132  1010-14.   0.35.05   0.   0.       94.2  19.       11000                                   
    6 L  ARoanoke--132  1014-11.                                           11000                                   
    7 L  ABlaine---132  1005-13.                           22.8 10.9       11000                                   
    8 L1 AReusens--132  1010-12.   0.26.96   0.   0.        30.  30.       11000                                   
    9 L  ZRoanoke--1.0  1036-14.                                           11000                                   
   10 L  TRoanoke---33  1026-16.                            5.8   2.  19.  11000                                   
   11 L1 SRoanoke---11  1082-14.   0. 23.7   0.   0.                       11000                                   
   12 L  THancock---33  1034-15.                           11.2  7.5       11000                                   
   13 L1 SHancock---11  1071-15.   0.28.27   0.   0.                       11000                                   
   14 L  TBarra14---33  1019-16.                            6.2  1.6       11000                                   
   15 L  TBarra15---33  1015-16.                            8.2  2.5       11000                                   
   16 L  TBarra16---33  1023-16.                            3.5  1.8       11000                                   
   17 L  TBarra17---33  1020-16.                             9.  5.8       11000                                   
   18 L  TBarra18---33  1006-17.                            3.2   .9       11000                                   
   19 L  TBarra19---33  1004-17.                            9.5  3.4       11000                                   
   20 L  TBarra20---33  1009-17.                            2.2   .7       11000                                   
   21 L  TBarra21---33  1012-17.                           17.5 11.2       11000                                   
   22 L  TBarra22---33  1013-17.                                           11000                                   
   23 L  TBarra23---33  1004-17.                            3.2  1.6       11000                                   
   24 L  TBarra24---33   999-17.                            8.7  6.7  4.3  11000                                   
   25 L  TBarra25---33   991-16.                                           11000                                   
   26 L  TBarra26---33   973-17.                            3.5  2.3       11000                                   
   27 L  TCloverdle-33   996-16.                                           11000                                   
   28 L  ACloverdle132  1010-12.                                           11000                                   
   29 L  TBarra29---33   975-17.                            2.4   .9       11000                                   
   30 L  TBarra30---33   963-18.                           10.6  1.9       11000                                   
   31 L  TBarra15---01  1015-16.                                           11000                                   
   32 L  TBarra15---02  1015-16.                                           11000                                   
   33 L  TBarra15---03  1015-16.                                           11000                                   
   34 L  TBarra15---04  1015-16.                                           11000                                   
   35 L  TBarra15---05  1015-16.                                           11000                                   
   36 L  TBarra12---01  1034-15.                                           11000                                   
   37 L  TBarra12---02  1034-15.                                           11000                                   
   38 L  TBarra12---03  1034-15.                                           11000                                   
   39 L  TBarra12---04  1034-15.                                           11000                                   
   40 L  TBarra12---05  1034-15.                                           11000                                   
   41 L  TBarra12---06  1034-15.                                           11000                                   
99999
DLIN
(De )d O d(Pa )NcEP ( R% )( X% )(Mvar)(Tap)(Tmn)(Tmx)(Phs)(Bc  )(Cn)(Ce)Ns(Cq)(1)(2)(3)(4)(5)(6)(7)(8)(9)(10
    1         2 1     1.92  5.75  5.28                          99999999  9999                                
    1         3 1     4.52 16.52  4.08                          99999999  9999                                
    2         4 1      5.7 17.37  3.68                          99999999  9999                                
    2         5 1     4.72 19.83  4.18                          99999999  9999                                
    2         6 1     5.81 17.63  3.74                          99999999  9999                                
    3         4 1     1.32  3.79   .84                          99999999  9999                                
    4         6 1     1.19  4.14    .9                          99999999  9999                                
    4        37 1           25.6         1.                     99999999  9999                                
    5         7 1      4.6  11.6  2.04                          99999999  9999                                
    6         7 1     2.67   8.2   1.7                          99999999  9999                                
    6         8 1      1.2   4.2    .9                          99999999  9999                                
    6         9 1           20.8         1.                     99999999  9999                                
    6        10 1           55.6         1.                     99999999  9999                                
    6        28 1     1.69  5.99   1.3                          99999999  9999                                
    8        28 1     6.36   20.  4.28                          99999999  9999                                
    9        10 1            11.                                99999999  9999                                
    9        11 1           20.8                                99999999  9999                                
   10        17 1     3.24  8.45                                99999999  9999                                
   10        20 1     9.36  20.9                                99999999  9999                                
   10        21 1     3.48  7.49                                99999999  9999                                
   10        22 1     7.27 14.99                                99999999  9999                                
   12        37 1           .001                                99999999  9999                                
   12        38 1           .001                                99999999  9999                                
   12        39 1           .001                                99999999  9999                                
   12        40 1D         9999.                                99999999  9999                                
   12        41 1           .001                                99999999  9999                                
   14        32 1     22.1 19.97                                99999999  9999                                
   15        31 1D         9999.                                99999999  9999                                
   15        32 1           .001                                99999999  9999                                
   15        33 1           .001                                99999999  9999                                
   15        34 1           .001                                99999999  9999                                
   16        17 1     5.24 19.23                                99999999  9999                                
   18        19 1     6.39 12.92                                99999999  9999                                
   19        20 1      3.4   6.8                                99999999  9999                                
   21        22 1     1.16  2.36                                99999999  9999                                
   22        24 1     11.5  17.9                                99999999  9999                                
   23        24 1     13.2   27.                                99999999  9999                                
   24        25 1    18.85 32.92                                99999999  9999                                
   25        26 1    25.44   38.                                99999999  9999                                
   25        27 1    10.93 20.87                                99999999  9999                                
   27        29 1    21.98 41.53                                99999999  9999                                
   27        30 1    32.02 60.27                                99999999  9999                                
   28        27 1           39.6         1.                     99999999  9999                                
   29        30 1    23.99 45.33                                99999999  9999                                
   31        35 1           .001                                99999999  9999                                
   32        35 1D         9999.                                99999999  9999                                
   33        23 1      10.  20.2                                99999999  9999                                
   33        35 1           .001                                99999999  9999                                
   34        18 1    10.73 21.85                                99999999  9999                                
   34        35 1D         9999.                                99999999  9999                                
   36        37 1D         9999.                                99999999  9999                                
   36        38 1           .001                                99999999  9999                                
   36        39 1D         9999.                                99999999  9999                                
   36        40 1           .001                                99999999  9999                                
   36        41 1D         9999.                                99999999  9999                                
   38        13 1            14.                                99999999  9999                                
   39        14 1    12.31 25.59                                99999999  9999                                
   40        31 1     6.62 13.04                                99999999  9999                                
   41        16 1     9.45 19.87                                99999999  9999                                
99999
FIM
